v1 vb va 14
v2 vc 0 20
r1 va 0 2
r2 vb vc 4
r3 vb 0 8

.OPTIONS
.DC V1 5 15 3
.PLOT V(va) V(vb) V(vc)