
I1 4 8 1e-3
I2 0 6 1e-3
R1 1 5 1.5
R2 1 2 1
R3 5 2 50
R4 5 6 0.1
R5 2 6 1.5
R6 3 4 0.2
R7 8 0 1e3
R8 4 0 10
*V2 2 4 10

.OPTIONS SPD
*.DC
.DC I2 1e-3 2e-3 1e-4
.PLOT V(1) V(4) V(2) V(6) V(8) V(3)
