r0 1 5 1 
r1 2 6 2 
r2 3 7 3 
r3 4 5 4
r4 5 6 5 
r5 6 7 6
r6 7 8 7
r7 9 13 8
r8 10 14 9
r9 11 15 10
r10 12 13 11
r11 13 14 12
r12 14 15 13
r13 15 16 14
r14 12 20 15
r15 16 22 16
r16 17 20 17
r17 18 21 18
r18 19 22 19
r19 20 21 20
r20 21 22 21
r24 20 22 22
i1 0 1 1 
i2 0 3 2 
i3 6 10 3
i4 8 16 4
i5 13 17 5
i6 15 19 6 
v1 2 0 1 
v2 12 4 2
v3 9 5 3
v4 11 7 4
v5 18 14 5 

.OPTIONS
.DC v1 1 5 0.1
.PLOT V(1) V(3)
